Version 4
SHEET 1 2788 888
WIRE 800 -640 736 -640
WIRE 736 -576 736 -640
WIRE 800 -544 800 -640
WIRE 736 -352 736 -432
WIRE 736 -224 736 -272
WIRE 1712 -144 1712 -272
WIRE 1648 -96 1616 -96
WIRE 944 -32 848 -32
WIRE 944 -16 944 -32
WIRE 16 16 -80 16
WIRE 128 16 16 16
WIRE 208 16 128 16
WIRE 320 16 272 16
WIRE -80 64 -80 16
WIRE 208 96 160 96
WIRE 320 96 320 16
WIRE 320 96 272 96
WIRE 384 96 320 96
WIRE 560 96 464 96
WIRE 848 96 848 48
WIRE 848 96 752 96
WIRE 1888 112 1808 112
WIRE 2064 112 1888 112
WIRE 2192 112 2064 112
WIRE 1248 128 1216 128
WIRE 1536 128 1472 128
WIRE 1216 144 1216 128
WIRE 1712 160 1712 -48
WIRE -80 176 -80 144
WIRE 64 176 -80 176
WIRE 160 176 160 96
WIRE 160 176 64 176
WIRE 208 176 160 176
WIRE 320 176 272 176
WIRE 2192 176 2192 112
WIRE 320 192 320 176
WIRE 384 192 320 192
WIRE 560 192 464 192
WIRE 848 192 752 192
WIRE 1248 192 848 192
WIRE 1568 192 1472 192
WIRE 848 208 848 192
WIRE 2064 208 2064 112
WIRE -80 224 -80 176
WIRE 128 256 128 16
WIRE 208 256 128 256
WIRE 320 256 320 192
WIRE 320 256 272 256
WIRE 1248 256 1072 256
WIRE 1568 256 1568 192
WIRE 1568 256 1472 256
WIRE 1712 256 1712 240
WIRE 1712 256 1568 256
WIRE 1888 272 1888 112
WIRE 2016 272 1888 272
WIRE 320 288 320 256
WIRE 848 320 848 288
WIRE 1248 320 1200 320
WIRE 1568 320 1472 320
WIRE 1712 320 1712 256
WIRE 1568 336 1568 320
WIRE 2192 336 2192 256
WIRE 1568 432 1568 400
WIRE 1712 432 1712 384
WIRE 2064 432 2064 272
WIRE 2192 432 2192 400
WIRE 2192 432 2064 432
WIRE 1888 496 1888 272
WIRE 2192 512 2192 432
WIRE 1072 592 1072 256
WIRE 1200 592 1072 592
WIRE 1664 592 1584 592
WIRE 2192 656 2192 592
WIRE 1392 688 1296 688
WIRE 1888 688 1584 688
WIRE 1296 720 1296 688
FLAG 320 288 0
FLAG 848 320 0
FLAG 944 -16 0
FLAG -80 224 COM
FLAG 1216 144 0
FLAG 848 96 5V
FLAG 1536 128 5V
FLAG 1200 320 5V
FLAG 1568 432 0
FLAG 1712 432 0
FLAG 16 16 AC_L
FLAG 2192 112 AC_L
FLAG 2192 656 AC_N
FLAG 64 176 AC_N
FLAG 1296 720 0
FLAG 736 -224 0
FLAG 800 -544 0
FLAG 1712 -272 5V
SYMBOL diode 208 32 R270
WINDOW 0 32 32 VTop 2
WINDOW 3 0 32 VBottom 2
SYMATTR InstName D1
SYMBOL diode 208 112 R270
WINDOW 0 32 32 VTop 2
WINDOW 3 0 32 VBottom 2
SYMATTR InstName D2
SYMBOL diode 272 160 R90
WINDOW 0 0 32 VBottom 2
WINDOW 3 32 32 VTop 2
SYMATTR InstName D3
SYMBOL diode 272 240 R90
WINDOW 0 0 32 VBottom 2
WINDOW 3 32 32 VTop 2
SYMATTR InstName D4
SYMBOL voltage -80 48 R0
WINDOW 123 0 0 Left 0
WINDOW 39 0 0 Left 0
SYMATTR InstName V1
SYMATTR Value SINE(0 375 50)
SYMBOL Optos\\PC817A 656 144 R0
SYMATTR InstName U1
SYMBOL res 480 80 R90
WINDOW 0 0 56 VBottom 2
WINDOW 3 32 56 VTop 2
SYMATTR InstName R1
SYMATTR Value 56k
SYMBOL res 480 176 R90
WINDOW 0 0 56 VBottom 2
WINDOW 3 32 56 VTop 2
SYMATTR InstName R2
SYMATTR Value 56k
SYMBOL res 832 192 R0
SYMATTR InstName R3
SYMATTR Value 10k
SYMBOL voltage 848 64 R180
WINDOW 123 0 0 Left 0
WINDOW 39 0 0 Left 0
SYMATTR InstName V2
SYMATTR Value 5
SYMBOL Misc\\NE555 1360 224 R0
SYMATTR InstName U2
SYMBOL cap 1552 336 R0
SYMATTR InstName C1
SYMATTR Value 2.2µF
SYMBOL cap 1696 320 R0
SYMATTR InstName C2
SYMATTR Value 9.2nF
SYMBOL res 1696 144 R0
SYMATTR InstName R4
SYMATTR Value 700k
SYMBOL cap 2176 336 R0
SYMATTR InstName C3
SYMATTR Value 0.01µF
SYMBOL res 2176 160 R0
SYMATTR InstName R5
SYMATTR Value 47R
SYMBOL Misc\\TRIAC 2032 208 R0
SYMATTR InstName U3
SYMATTR Value BTA12-600B
SYMBOL res 2208 608 R180
WINDOW 0 36 76 Left 2
WINDOW 3 36 40 Left 2
SYMATTR InstName R7
SYMATTR Value 1000R
SYMBOL Optos\\PC817A 1488 640 R0
SYMATTR InstName U4
SYMBOL res 1296 576 R90
WINDOW 0 0 56 VBottom 2
WINDOW 3 32 56 VTop 2
SYMATTR InstName R6
SYMATTR Value 1k
SYMBOL res 1760 576 R90
WINDOW 0 0 56 VBottom 2
WINDOW 3 32 56 VTop 2
SYMATTR InstName R9
SYMATTR Value 470
SYMBOL pnp 1648 -144 R0
WINDOW 0 -11 62 Left 2
SYMATTR InstName Q1
SYMATTR Value 2N2907
SYMBOL cap 720 -496 R0
SYMATTR InstName C4
SYMATTR Value 10µF
SYMBOL res 720 -368 R0
SYMATTR InstName R8
SYMATTR Value 100k
SYMBOL voltage 736 -480 R180
WINDOW 123 0 0 Left 0
WINDOW 39 0 0 Left 0
SYMATTR InstName V3
SYMATTR Value 5
SYMBOL res 1632 -112 R90
WINDOW 0 0 56 VBottom 2
WINDOW 3 32 56 VTop 2
SYMATTR InstName R10
SYMATTR Value 100
SYMBOL pmos 1904 -224 R0
SYMATTR InstName M1
SYMATTR Value AO3401
SYMATTR Prefix X
TEXT -112 312 Left 2 !.tran 0 2 0 100ms
TEXT -416 800 Left 2 !.lib C:\\Users\\Enrico\\Downloads\\en.standard_snubberless_triacs_pspice\\standard_snubberless_triacs_pspice\\st_standard_snubberless_triacs.lib
TEXT -416 840 Left 2 !.lib C:\\Users\\Enrico\\Downloads\\en.mjd32ct4-a-spice\\MJD32CT4-A.LIB
TEXT -416 872 Left 2 !.lib C:\\Users\\Enrico\\Downloads\\AO3401.mod
