Version 4
SHEET 1 2892 888
WIRE 1824 -512 1488 -512
WIRE 1696 -432 1648 -432
WIRE 1792 -432 1760 -432
WIRE 1824 -432 1824 -512
WIRE 1968 -432 1904 -432
WIRE 1968 -400 1968 -432
WIRE 1824 -368 1824 -432
WIRE 1824 -368 1728 -368
WIRE 1408 -352 1392 -352
WIRE 1552 -352 1488 -352
WIRE 1648 -352 1648 -432
WIRE 1648 -352 1632 -352
WIRE 1696 -352 1648 -352
WIRE 1792 -336 1792 -432
WIRE 1792 -336 1760 -336
WIRE 1696 -320 1616 -320
WIRE 1392 -256 1392 -352
WIRE 1616 -256 1616 -320
WIRE 1728 -256 1728 -304
WIRE 1824 -160 1712 -160
WIRE 1712 -128 1712 -160
WIRE 1824 -128 1824 -160
WIRE 944 -32 848 -32
WIRE 944 -16 944 -32
WIRE 16 16 -80 16
WIRE 128 16 16 16
WIRE 208 16 128 16
WIRE 320 16 272 16
WIRE -80 64 -80 16
WIRE 208 96 160 96
WIRE 320 96 320 16
WIRE 320 96 272 96
WIRE 384 96 320 96
WIRE 560 96 464 96
WIRE 848 96 848 48
WIRE 848 96 752 96
WIRE 1248 128 1216 128
WIRE 1536 128 1472 128
WIRE 1216 144 1216 128
WIRE 1712 160 1712 -48
WIRE -80 176 -80 144
WIRE 64 176 -80 176
WIRE 160 176 160 96
WIRE 160 176 64 176
WIRE 208 176 160 176
WIRE 320 176 272 176
WIRE 320 192 320 176
WIRE 384 192 320 192
WIRE 560 192 464 192
WIRE 848 192 752 192
WIRE 1248 192 848 192
WIRE 1568 192 1472 192
WIRE 2496 192 2416 192
WIRE 2672 192 2496 192
WIRE 2800 192 2672 192
WIRE 848 208 848 192
WIRE -80 224 -80 176
WIRE 128 256 128 16
WIRE 208 256 128 256
WIRE 320 256 320 192
WIRE 320 256 272 256
WIRE 1248 256 1072 256
WIRE 1568 256 1568 192
WIRE 1568 256 1472 256
WIRE 1648 256 1568 256
WIRE 1712 256 1712 240
WIRE 1712 256 1648 256
WIRE 2800 256 2800 192
WIRE 320 288 320 256
WIRE 2672 288 2672 192
WIRE 848 320 848 288
WIRE 1248 320 1200 320
WIRE 1568 320 1472 320
WIRE 1712 320 1712 256
WIRE 1568 336 1568 320
WIRE 2496 352 2496 192
WIRE 2624 352 2496 352
WIRE 2800 416 2800 336
WIRE 1568 432 1568 400
WIRE 1712 432 1712 384
WIRE 2672 512 2672 352
WIRE 2800 512 2800 480
WIRE 2800 512 2672 512
WIRE 2496 576 2496 352
WIRE 1072 592 1072 256
WIRE 1200 592 1072 592
WIRE 1664 592 1584 592
WIRE 2800 592 2800 512
WIRE 1392 688 1296 688
WIRE 1888 688 1584 688
WIRE 1296 720 1296 688
WIRE 2800 736 2800 672
FLAG 320 288 0
FLAG 848 320 0
FLAG 944 -16 0
FLAG -80 224 COM
FLAG 1216 144 0
FLAG 848 96 5V
FLAG 1536 128 5V
FLAG 1200 320 5V
FLAG 1568 432 0
FLAG 1712 432 0
FLAG 16 16 AC_L
FLAG 2800 192 AC_L
FLAG 2800 736 AC_N
FLAG 64 176 AC_N
FLAG 1296 720 0
FLAG 1392 -256 0
FLAG 1616 -256 0
FLAG 1728 -256 0
FLAG 1968 -400 0
FLAG 1824 -128 0
FLAG 1072 256 OUT
FLAG 1648 256 RC
SYMBOL diode 208 32 R270
WINDOW 0 32 32 VTop 2
WINDOW 3 0 32 VBottom 2
SYMATTR InstName D1
SYMBOL diode 208 112 R270
WINDOW 0 32 32 VTop 2
WINDOW 3 0 32 VBottom 2
SYMATTR InstName D2
SYMBOL diode 272 160 R90
WINDOW 0 0 32 VBottom 2
WINDOW 3 32 32 VTop 2
SYMATTR InstName D3
SYMBOL diode 272 240 R90
WINDOW 0 0 32 VBottom 2
WINDOW 3 32 32 VTop 2
SYMATTR InstName D4
SYMBOL voltage -80 48 R0
WINDOW 123 0 0 Left 0
WINDOW 39 0 0 Left 0
SYMATTR InstName V1
SYMATTR Value SINE(0 375 50)
SYMBOL Optos\\PC817A 656 144 R0
SYMATTR InstName U1
SYMBOL res 480 80 R90
WINDOW 0 0 56 VBottom 2
WINDOW 3 32 56 VTop 2
SYMATTR InstName R1
SYMATTR Value 56k
SYMBOL res 480 176 R90
WINDOW 0 0 56 VBottom 2
WINDOW 3 32 56 VTop 2
SYMATTR InstName R2
SYMATTR Value 56k
SYMBOL res 832 192 R0
SYMATTR InstName R3
SYMATTR Value 40k
SYMBOL voltage 848 64 R180
WINDOW 123 0 0 Left 0
WINDOW 39 0 0 Left 0
SYMATTR InstName V2
SYMATTR Value 5
SYMBOL Misc\\NE555 1360 224 R0
SYMATTR InstName U2
SYMBOL cap 1552 336 R0
SYMATTR InstName C1
SYMATTR Value 2.2µF
SYMBOL cap 1696 320 R0
SYMATTR InstName C2
SYMATTR Value 10nF
SYMBOL res 1696 144 R0
SYMATTR InstName R4
SYMATTR Value 200k
SYMBOL cap 2784 416 R0
SYMATTR InstName C3
SYMATTR Value 0.01µF
SYMBOL res 2784 240 R0
SYMATTR InstName R5
SYMATTR Value 47R
SYMBOL Misc\\TRIAC 2640 288 R0
SYMATTR InstName U3
SYMATTR Value BTA12-600B
SYMBOL res 2816 688 R180
WINDOW 0 36 76 Left 2
WINDOW 3 36 40 Left 2
SYMATTR InstName R7
SYMATTR Value 1000R
SYMBOL Optos\\PC817A 1488 640 R0
SYMATTR InstName U4
SYMBOL res 1296 576 R90
WINDOW 0 0 56 VBottom 2
WINDOW 3 32 56 VTop 2
SYMATTR InstName R6
SYMATTR Value 1k
SYMBOL res 1760 576 R90
WINDOW 0 0 56 VBottom 2
WINDOW 3 32 56 VTop 2
SYMATTR InstName R9
SYMATTR Value 470
SYMBOL res 1648 -368 R90
WINDOW 0 0 56 VBottom 2
WINDOW 3 32 56 VTop 2
SYMATTR InstName R12
SYMATTR Value 100k
SYMBOL cap 1760 -448 R90
WINDOW 0 0 32 VBottom 2
WINDOW 3 32 32 VTop 2
SYMATTR InstName C6
SYMATTR Value 10µF
SYMBOL voltage 1808 -432 R270
WINDOW 0 32 56 VTop 2
WINDOW 3 68 202 VBottom 2
WINDOW 123 0 0 Left 0
WINDOW 39 0 0 Left 0
SYMATTR InstName V4
SYMATTR Value PULSE(12 12 0 0 0 10)
SYMBOL OpAmps\\AD549 1728 -400 R0
SYMATTR InstName U5
SYMBOL voltage 1712 -32 R180
WINDOW 0 24 96 Left 2
WINDOW 3 24 16 Left 2
WINDOW 123 0 0 Left 0
WINDOW 39 0 0 Left 0
SYMATTR InstName V5
SYMATTR Value PULSE(3.3 12 0.5 0.5 0 5)
SYMBOL voltage 1504 -352 R90
WINDOW 0 32 56 VTop 2
WINDOW 3 68 202 VBottom 2
WINDOW 123 0 0 Left 0
WINDOW 39 0 0 Left 0
SYMATTR InstName V3
SYMATTR Value SINE(0 5 5 0 0 10)
TEXT -112 312 Left 2 !.tran 0 1 0.5
TEXT -416 800 Left 2 !.lib C:\\Users\\Enrico\\Downloads\\en.standard_snubberless_triacs_pspice\\standard_snubberless_triacs_pspice\\st_standard_snubberless_triacs.lib
TEXT -416 840 Left 2 !.lib C:\\Users\\Enrico\\Downloads\\en.mjd32ct4-a-spice\\MJD32CT4-A.LIB
TEXT -416 872 Left 2 !.lib C:\\Users\\Enrico\\Downloads\\AO3401.mod
